   25
sisl-version=1 cell= 6.23414542 -0.11372100 -0.00000000 0.00000000 6.50844842 0.00000000 0.00000000 0.00000000 12.30000000  nsc= 1 3 1
C   0.72227964  2.32602616  6.15296586
C   4.79294700  3.26579700  6.15543605
C   5.32976300  -0.45327342  6.15898707
C   3.71937700  4.19551100  6.15639202
C   1.47181620  5.98457613  6.15203578
C   2.91415300  0.01154200  6.15330501
C   3.98778500  5.59020000  6.15717092
C   2.13650856  2.32004794  6.15586907
C   3.18256100  1.40623300  6.15637305
C   4.52460100  1.87112900  6.15583237
C   1.41944967  4.56383935  6.15094908
C   2.49657129  3.68677747  6.15256698
C   -4.02646000  1.39120000  6.15822278
C   -2.68442000  0.92630400  6.15808489
C   -1.61458579  1.84338424  6.15137076
C   -0.27296649  1.36403618  6.15644607
C   -4.29487000  2.78588900  6.15851780
C   -3.22124000  3.71568100  6.15777307
C   -1.92811280  3.22990951  6.15057770
C   -0.93288639  4.19596542  6.15775426
C   -3.48965000  5.11037000  6.15553132
C   -2.41601000  6.04016300  6.15731771
C   -1.06653110  5.59385173  6.15919644
C   0.08035355  6.50357210  6.15629836
C   0.32093510  3.69462054  6.15705998
