   97
sisl-version=1 cell= 74.80974500 -1.36465200 -0.00000000 0.00000000 6.50844842 0.00000000 0.00000000 0.00000000 12.30000000  nsc= 1 3 1
C   0.72227964  2.32602616  6.15296586
C   4.79294700  3.26579700  6.15543605
C   5.32976300  -0.45327342  6.15898707
C   3.71937700  4.19551100  6.15639202
C   1.47181620  5.98457613  6.15203578
C   2.91415300  0.01154200  6.15330501
C   3.98778500  5.59020000  6.15717092
C   2.13650856  2.32004794  6.15586907
C   3.18256100  1.40623300  6.15637305
C   4.52460100  1.87112900  6.15583237
C   1.41944967  4.56383935  6.15094908
C   2.49657129  3.68677747  6.15256698
C   -4.02646000  1.39120000  6.15822278
C   -2.68442000  0.92630400  6.15808489
C   -1.61458579  1.84338424  6.15137076
C   -0.27296649  1.36403618  6.15644607
C   -4.29487000  2.78588900  6.15851780
C   -3.22124000  3.71568100  6.15777307
C   -1.92811280  3.22990951  6.15057770
C   -0.93288639  4.19596542  6.15775426
C   -3.48965000  5.11037000  6.15553132
C   -2.41601000  6.04016300  6.15731771
C   -1.06653110  5.59385173  6.15919644
C   0.08035355  6.50357210  6.15629836
C   0.32093510  3.69462054  6.15705998
C   -14.49430000  3.71568100  6.15000000
C   -15.56800000  2.78588900  6.15000000
C   -16.91000000  3.25078500  6.15000000
C   -17.98360000  2.32099200  6.15000000
C   -15.29960000  1.39120000  6.15000000
C   -16.37320000  0.46140700  6.15000000
C   -17.71520000  0.92630300  6.15000000
C   -18.78890000  -0.00347842  6.15000000
C   -14.76270000  -1.39816842  6.15000000
C   -16.10480000  -0.93327842  6.15000000
C   -17.17840000  -1.86306842  6.15000000
C   -18.52050000  -1.39816842  6.15000000
C   -9.66303000  4.64547400  6.15000000
C   -10.73660000  3.71568100  6.15000000
C   -12.07870000  4.18057800  6.15000000
C   -13.15230000  3.25078500  6.15000000
C   -10.46820000  2.32099200  6.15000000
C   -11.54180000  1.39120000  6.15000000
C   -12.88390000  1.85609600  6.15000000
C   -13.95750000  0.92630400  6.15000000
C   -9.93144000  -0.46837842  6.15000000
C   -11.27340000  -0.00347842  6.15000000
C   -12.34710000  -0.93327842  6.15000000
C   -13.68910000  -0.46837842  6.15000000
C   -4.83169000  5.57526700  6.15031606
C   -5.90532000  4.64547400  6.15000000
C   -7.24736000  5.11037000  6.15000000
C   -8.32099000  4.18057800  6.15000000
C   -5.63691000  3.25078500  6.15000000
C   -6.71054000  2.32099300  6.15000000
C   -8.05258000  2.78588900  6.15000000
C   -9.12622000  1.85609600  6.15000000
C   -5.10009000  0.46140700  6.15602666
C   -6.44213000  0.92630400  6.15000000
C   -7.51577000  -0.00347842  6.15000000
C   -8.85781000  0.46140700  6.15000000
C   7.20868100  2.80092200  6.15000000
C   6.13504900  3.73071400  6.15000000
C   9.35594500  0.94133600  6.15000000
C   8.01390500  0.47644000  6.15000000
C   6.94027300  1.40623300  6.15000000
C   5.59823300  0.94133600  6.15148096
C   8.81912900  4.66040700  6.15000000
C   7.74549700  -0.91824842  6.15000000
C   6.40345700  5.12530300  6.15000000
C   8.55072100  3.26571800  6.15000000
C   10.16110000  -1.38306642  6.15000000
C   9.62429100  2.33600400  6.15000000
C   12.04002000  1.87112900  6.15000000
C   10.96639000  2.80092200  6.15000000
C   14.18728000  0.01154400  6.15000000
C   12.84524000  -0.45334842  6.15000000
C   11.77161000  0.47644000  6.15000000
C   10.42957000  0.01154400  6.15000000
C   13.65047000  3.73061400  6.15000000
C   12.57684000  -1.84804142  6.15000000
C   11.23480000  4.19551100  6.15000000
C   13.38206000  2.33592500  6.15000000
C   14.99245000  -2.31285942  6.15000000
C   14.45563000  1.40621100  6.15000000
C   16.87137000  0.94133600  6.15000000
C   15.79773000  1.87112900  6.15000000
C   19.01863000  -0.91823842  6.15000000
C   17.67659000  -1.38313842  6.15000000
C   16.60296000  -0.45334842  6.15000000
C   15.26092000  -0.91823842  6.15000000
C   18.48181000  2.80082200  6.15000000
C   17.40818000  -2.77783442  6.15000000
C   16.06614000  3.26571800  6.15000000
C   18.21341000  1.40613300  6.15000000
C   19.82379000  -3.24265142  6.15000000
C   19.28698000  0.47641900  6.15000000
