   6
sisl-version=1 cell= 2.41567217 -0.46489633 0.00000000 0.00000000 6.50844800 0.00000000 0.00000000 0.00000000 12.30000000  nsc= 3 3 1
C   7.20868077  2.80092186  6.15000000
C   6.13504872  3.73071449  6.15000000
C   6.94027276  1.40623292  6.15000000
C   5.59823269  0.94133660  6.15000000
C   7.74549680  -0.91824866  6.15000000
C   6.40345673  5.12530344  6.15000000
